3
F:    ...  E:  0
C   9.99805033281329   10.00000000000000   10.00000000000000
N   11.15700200702291   10.00000000000000   10.00000000000000
H   8.92494766016375   10.00000000000000   10.00000000000000
3
F:  0.133805  ...  E:  0.267914689999998
C   9.94766813674180   10.00000000000000   9.78598363747606
N   11.10036349845571   10.00000000000000   9.89086989132282
H   9.00715287168252   10.00000000000000   10.27351548496839
3
F:  0.085737  ...  E:  1.29883139
C   9.89766900216842   10.00000000000000   9.54230890868838
N   10.96075688858269   10.00000000000000   10.03465455900620
H   9.19669076138351   10.00000000000000   10.37326983658092
3
F:  0.236456  ...  E:  1.99501486
C   9.88667336637086   10.00000000000000   9.34277334282228
N   10.75835954783499   10.00000000000000   10.15812309552370
H   9.41008748798229   10.00000000000000   10.44934436603600
3
F:  0.758531  ...  E:  1.38780309
C   10.02948059682643   10.00000000000000   9.08297305600793
N   10.48231400590869   10.00000000000000   10.19269712759104
H   9.54332079997102   10.00000000000000   10.67456062182128
3
F:  0.133647  ...  E:  0.718961950000001
C   10.21836025851458   10.00000000000000   8.91772640684674
N   10.19270201663395   10.00000000000000   10.09686484740580
H   9.64374902991387   10.00000000000000   10.93503135587116
3
F:    ...  E:  0.61453633
C   10.00000000000000   10.00000000000000   8.82828335709300
N   10.00000000000000   10.00000000000000   10.00384160178000
H   10.00000000000000   10.00000000000000   11.00787504112695
