33
F:  0.119521  ...  E:  0
Pd   0.00000000000000   1.97800004482500   0.00000000000000
Pd   1.97800004482500   0.00000000000000   0.00000000000000
Pd   3.95600008965000   1.97800004482500   0.00000000000000
Pd   5.93400013447500   0.00000000000000   0.00000000000000
Pd   0.00000000000000   5.93400013447500   0.00000000000000
Pd   1.97800004482500   3.95600008965000   0.00000000000000
Pd   3.95600008965000   5.93400013447500   0.00000000000000
Pd   5.93400013447500   3.95600008965000   0.00000000000000
Pd   0.00000000000000   0.00000000000000   1.97790576126434
Pd   1.97800004482500   1.97800004482500   1.97790576126434
Pd   3.95600008965000   0.00000000000000   1.97790576126434
Pd   5.93400013447500   1.97800004482500   1.97790576126434
Pd   0.00000000000000   3.95600008965000   1.97790576126434
Pd   1.97800004482500   5.93400013447500   1.97790576126434
Pd   3.95600008965000   3.95600008965000   1.97790576126434
Pd   5.93400013447500   5.93400013447500   1.97790576126434
Pd   0.00000000000000   1.97800004482500   3.92471050317427
Pd   1.97193738625568   0.00606265856932   3.93908564948949
Pd   3.95600008965000   1.97800004482500   3.95358946580005
Pd   5.94006279304432   0.00606265856932   3.93908564948949
Pd   0.00000000000000   5.93400013447500   3.95358946580005
Pd   1.97193738625568   3.94993743108068   3.93908564948949
Pd   3.95600008965000   5.93400013447500   3.97223042429136
Pd   5.94006279304432   3.94993743108068   3.93908564948949
Pd   0.00000000000000   0.02772530840169   5.90166973256925
Pd   1.95027473642331   1.97800004482500   5.90166973256925
Pd   3.95600008965000   0.06990519468685   5.89362786505307
Pd   5.96172544287669   1.97800004482500   5.90166973256925
Pd   0.00000000000000   3.92827478124831   5.90166973256925
Pd   1.90809485013815   5.93400013447500   5.89362786505307
Pd   6.00390532916185   5.93400013447500   5.89362786505307
Pd   3.95600008965000   3.88609489496315   5.89362786505307
Pd   3.95600008965000   5.93400013447500   7.58451932835192
33
F:  0.019129  ...  E:  0.325764190000001
Pd   0.00000000000000   1.97800004482500   0.00000000000000
Pd   1.97800004482500   0.00000000000000   0.00000000000000
Pd   3.95600008964999   1.97800004482500   0.00000000000000
Pd   5.93400013447500   0.00000000000000   0.00000000000000
Pd   0.00000000000000   5.93400013447500   0.00000000000000
Pd   1.97800004482500   3.95600008964999   0.00000000000000
Pd   3.95600008964999   5.93400013447500   0.00000000000000
Pd   5.93400013447500   3.95600008964999   0.00000000000000
Pd   0.00000000000000   0.00000000000000   1.97790576126434
Pd   1.97800004482500   1.97800004482500   1.97790576126434
Pd   3.95600008964999   0.00000000000000   1.97790576126434
Pd   5.93400013447500   1.97800004482500   1.97790576126434
Pd   0.00000000000000   3.95600008964999   1.97790576126434
Pd   1.97800004482500   5.93400013447500   1.97790576126434
Pd   3.95600008964999   3.95600008964999   1.97790576126434
Pd   5.93400013447500   5.93400013447500   1.97790576126434
Pd   0.00000000000000   2.00844358286279   3.93411076936861
Pd   1.95016478789280   0.01270801667560   3.92334926056321
Pd   3.95600008964999   2.04574717581137   3.90816929941418
Pd   5.96183539140718   0.01270801667560   3.92334926056321
Pd   0.00000000000000   5.94350537712659   3.98087015751551
Pd   1.97068864403644   3.99103969601733   3.95848868330369
Pd   3.95600008964999   5.94597598409456   3.95605220762997
Pd   5.94131153526355   3.99103969601733   3.95848868330369
Pd   0.00000000000000   0.02704431445750   5.89379363480394
Pd   1.96540281577951   2.01781305231897   5.88895152268504
Pd   3.95600008964999   0.18722567372278   5.74654875534052
Pd   5.94659736352048   2.01781305231897   5.88895152268504
Pd   0.00000000000000   3.98644120375771   5.91152566109494
Pd   1.99001866452205   5.98419072800480   5.96137035808049
Pd   5.92198151477794   5.98419072800480   5.96137035808049
Pd   3.95600008964999   3.99938694039183   5.95148355149933
Pd   3.95600008964999   6.56286669294336   7.74778610119759
33
F:  0.015590  ...  E:  0.99006940000001
Pd   0.00000000000000   1.97800004482500   0.00000000000000
Pd   1.97800004482500   0.00000000000000   0.00000000000000
Pd   3.95600008964999   1.97800004482500   0.00000000000000
Pd   5.93400013447500   0.00000000000000   0.00000000000000
Pd   0.00000000000000   5.93400013447500   0.00000000000000
Pd   1.97800004482500   3.95600008964999   0.00000000000000
Pd   3.95600008964999   5.93400013447500   0.00000000000000
Pd   5.93400013447500   3.95600008964999   0.00000000000000
Pd   0.00000000000000   0.00000000000000   1.97790576126434
Pd   1.97800004482500   1.97800004482500   1.97790576126434
Pd   3.95600008964999   0.00000000000000   1.97790576126434
Pd   5.93400013447500   1.97800004482500   1.97790576126434
Pd   0.00000000000000   3.95600008964999   1.97790576126434
Pd   1.97800004482500   5.93400013447500   1.97790576126434
Pd   3.95600008964999   3.95600008964999   1.97790576126434
Pd   5.93400013447500   5.93400013447500   1.97790576126434
Pd   0.00000000000000   2.00293693342497   3.94879371358809
Pd   1.93365303514143   -0.00026186540361   3.90759911439614
Pd   3.95600008964999   2.04979727470052   3.88689093924681
Pd   5.97834714415856   -0.00026186540361   3.90759911439614
Pd   0.00000000000000   5.92805769633780   3.98378544364545
Pd   1.96226668435440   3.98072182862960   3.96865877160964
Pd   3.95600008964999   5.91396190677978   3.93021101520782
Pd   5.94973349494559   3.98072182862960   3.96865877160964
Pd   0.00000000000000   0.00169408345325   5.89218514079109
Pd   1.98671209904202   1.98260601396607   5.90814206261827
Pd   3.95600008964999   0.12759381370779   5.63932336448043
Pd   5.92528808025798   1.98260601396607   5.90814206261827
Pd   0.00000000000000   3.98032182149269   5.90721568601573
Pd   2.04217851904911   5.99527644886860   5.99676627032597
Pd   5.86982166025088   5.99527644886860   5.99676627032597
Pd   3.95600008964999   3.97083549405777   5.91109748881884
Pd   3.95600008964999   7.22811888870227   7.95698535400417
33
F:  0.015479  ...  E:  1.33037314000001
Pd   0.00000000000000   1.97800004482500   0.00000000000000
Pd   1.97800004482500   0.00000000000000   0.00000000000000
Pd   3.95600008964999   1.97800004482500   0.00000000000000
Pd   5.93400013447500   0.00000000000000   0.00000000000000
Pd   0.00000000000000   5.93400013447500   0.00000000000000
Pd   1.97800004482500   3.95600008964999   0.00000000000000
Pd   3.95600008964999   5.93400013447500   0.00000000000000
Pd   5.93400013447500   3.95600008964999   0.00000000000000
Pd   0.00000000000000   0.00000000000000   1.97790576126434
Pd   1.97800004482500   1.97800004482500   1.97790576126434
Pd   3.95600008964999   0.00000000000000   1.97790576126434
Pd   5.93400013447500   1.97800004482500   1.97790576126434
Pd   0.00000000000000   3.95600008964999   1.97790576126434
Pd   1.97800004482500   5.93400013447500   1.97790576126434
Pd   3.95600008964999   3.95600008964999   1.97790576126434
Pd   5.93400013447500   5.93400013447500   1.97790576126434
Pd   0.00000000000000   1.99319359076398   3.96912288664665
Pd   1.93012488774657   -0.00008515847321   3.90502111261283
Pd   3.95600008964999   2.02589602663598   3.90463712705076
Pd   5.98187529155342   -0.00008515847321   3.90502111261283
Pd   0.00000000000000   5.91831794499238   3.96951178611564
Pd   1.96256549443524   3.95605381166227   3.96939195874035
Pd   3.95600008964999   5.88622433780343   3.90486462086602
Pd   5.94943468486475   3.95605381166227   3.96939195874035
Pd   0.00000000000000   -0.00019145011836   5.90083568039844
Pd   2.01373344858335   1.94238801722312   5.95115984207684
Pd   3.95600008964999   0.00049315292745   5.61941636266249
Pd   5.89826673071664   1.94238801722312   5.95115984207684
Pd   0.00000000000000   3.95567396198531   5.90025962610000
Pd   2.01389055155223   5.96970762263972   5.95145197207030
Pd   5.89810962774776   5.96970762263972   5.95145197207030
Pd   3.95600008964999   3.95585119621246   5.89976606156617
Pd   3.95600008964999   -0.00106053357944   8.07755949783595
33
F:  0.012641  ...  E:  0.990867100000003
Pd   0.00000000000000   1.97800004482500   0.00000000000000
Pd   1.97800004482500   0.00000000000000   0.00000000000000
Pd   3.95600008964999   1.97800004482500   0.00000000000000
Pd   5.93400013447500   0.00000000000000   0.00000000000000
Pd   0.00000000000000   5.93400013447500   0.00000000000000
Pd   1.97800004482500   3.95600008964999   0.00000000000000
Pd   3.95600008964999   5.93400013447500   0.00000000000000
Pd   5.93400013447500   3.95600008964999   0.00000000000000
Pd   0.00000000000000   0.00000000000000   1.97790576126434
Pd   1.97800004482500   1.97800004482500   1.97790576126434
Pd   3.95600008964999   0.00000000000000   1.97790576126434
Pd   5.93400013447500   1.97800004482500   1.97790576126434
Pd   0.00000000000000   3.95600008964999   1.97790576126434
Pd   1.97800004482500   5.93400013447500   1.97790576126434
Pd   3.95600008964999   3.95600008964999   1.97790576126434
Pd   5.93400013447500   5.93400013447500   1.97790576126434
Pd   0.00000000000000   1.98343789689520   3.98522583721137
Pd   1.93362504908537   7.91179927825901   3.90859847470682
Pd   3.95600008964999   1.99721101783138   3.93080251729923
Pd   5.97837513021460   7.91179927825901   3.90859847470682
Pd   0.00000000000000   5.90856635491570   3.94924097956605
Pd   1.96220640909835   3.93038693050196   3.96932287757377
Pd   3.95600008964999   5.86220307316165   3.88722519655609
Pd   5.94979377020164   3.93038693050196   3.96932287757377
Pd   0.00000000000000   7.90825924650884   5.89330824041524
Pd   2.04173821172764   1.91592217196601   5.99819376186023
Pd   3.95600008964999   7.78357390035651   5.63943964278314
Pd   5.87026196757235   1.91592217196601   5.99819376186023
Pd   0.00000000000000   3.93087882242432   5.90868243129544
Pd   1.98719885731803   5.92799429411845   5.90917696116520
Pd   5.92480132198196   5.92799429411845   5.90917696116520
Pd   3.95600008964999   3.94018061642984   5.91313559511512
Pd   3.95600008964999   0.68234662636557   7.95814055530578
33
F:  0.015670  ...  E:  0.326067330000001
Pd   0.00000000000000   1.97800004482500   0.00000000000000
Pd   1.97800004482500   0.00000000000000   0.00000000000000
Pd   3.95600008964999   1.97800004482500   0.00000000000000
Pd   5.93400013447500   0.00000000000000   0.00000000000000
Pd   0.00000000000000   5.93400013447500   0.00000000000000
Pd   1.97800004482500   3.95600008964999   0.00000000000000
Pd   3.95600008964999   5.93400013447500   0.00000000000000
Pd   5.93400013447500   3.95600008964999   0.00000000000000
Pd   0.00000000000000   0.00000000000000   1.97790576126434
Pd   1.97800004482500   1.97800004482500   1.97790576126434
Pd   3.95600008964999   0.00000000000000   1.97790576126434
Pd   5.93400013447500   1.97800004482500   1.97790576126434
Pd   0.00000000000000   3.95600008964999   1.97790576126434
Pd   1.97800004482500   5.93400013447500   1.97790576126434
Pd   3.95600008964999   3.95600008964999   1.97790576126434
Pd   5.93400013447500   5.93400013447500   1.97790576126434
Pd   0.00000000000000   1.96732912903622   3.98097945485379
Pd   1.94944286548824   7.89935923417461   3.92337509489262
Pd   3.95600008964999   1.96597818883260   3.95727379344189
Pd   5.96255731381174   7.89935923417461   3.92337509489262
Pd   0.00000000000000   5.90381290517180   3.93497519885905
Pd   1.97070071999378   3.92060206954838   3.95884124522494
Pd   3.95600008964999   5.86520576771748   3.90843442982232
Pd   5.94129945930621   3.92060206954838   3.95884124522494
Pd   0.00000000000000   7.88324622226857   5.89405967777324
Pd   1.98976794500685   1.92745307552725   5.96238884861163
Pd   3.95600008964999   7.72399474647233   5.74739912781715
Pd   5.92223223429314   1.92745307552725   5.96238884861163
Pd   0.00000000000000   3.92543700289033   5.91185240866397
Pd   1.96493531679771   5.89287922668310   5.88968300347916
Pd   5.94706486250228   5.89287922668310   5.88968300347916
Pd   3.95600008964999   3.91241815438808   5.95195591313374
Pd   3.95600008964999   1.34810693856346   7.74739905048505
33
F:  0.015795  ...  E:  -0.00604581999999709
Pd   0.00000000000000   1.97800004482500   0.00000000000000
Pd   1.97800004482500   0.00000000000000   0.00000000000000
Pd   3.95600008965000   1.97800004482500   0.00000000000000
Pd   5.93400013447500   0.00000000000000   0.00000000000000
Pd   0.00000000000000   5.93400013447500   0.00000000000000
Pd   1.97800004482500   3.95600008965000   0.00000000000000
Pd   3.95600008965000   5.93400013447500   0.00000000000000
Pd   5.93400013447500   3.95600008965000   0.00000000000000
Pd   0.00000000000000   0.00000000000000   1.97790576126434
Pd   1.97800004482500   1.97800004482500   1.97790576126434
Pd   3.95600008965000   0.00000000000000   1.97790576126434
Pd   5.93400013447500   1.97800004482500   1.97790576126434
Pd   0.00000000000000   3.95600008965000   1.97790576126434
Pd   1.97800004482500   5.93400013447500   1.97790576126434
Pd   3.95600008965000   3.95600008965000   1.97790576126434
Pd   5.93400013447500   5.93400013447500   1.97790576126434
Pd   0.00000000000000   1.97800004482500   3.94398154935797
Pd   1.97383977297593   7.90783990745093   3.93373249646885
Pd   3.95600008965000   1.97800004482500   3.96709191231309
Pd   5.93816040632407   7.90783990745093   3.93373249646885
Pd   0.00000000000000   5.93400013447500   3.92186845852706
Pd   1.97383977297593   3.96016036149907   3.93373249646885
Pd   3.95600008965000   5.93400013447500   3.94398154935797
Pd   5.93816040632407   3.96016036149907   3.93373249646885
Pd   0.00000000000000   7.88878655364401   5.89194825130381
Pd   1.91139218172709   1.97800004482500   5.88658756068649
Pd   3.95600008965000   7.84539231620208   5.88658756068649
Pd   6.00060799757291   1.97800004482500   5.88658756068649
Pd   0.00000000000000   3.97921371530599   5.89194825130381
Pd   1.95478641916901   5.93400013447500   5.89194825130381
Pd   5.95721376013099   5.93400013447500   5.89194825130381
Pd   3.95600008965000   4.02260795274791   5.88658756068649
Pd   3.95600008965000   1.97800004482500   7.58396778926944
